# Packages (lines beginning "#" are comments)
 &PACKAGES
 useGMRedi=.TRUE.,
 useDiagnostics_ob=.TRUE.,
#useMNC=.TRUE.,
 &
