# Packages (lines beginning "#" are comments)
 &PACKAGES
 useGMRedi=.TRUE.,
 useOBCS=.TRUE.,
 &
